
#======================================================================
# CRYSTAL DATA
#----------------------------------------------------------------------
data_VESTA_phase_1

_chemical_name_common                  'Br3 Sn, C H6 P                        '
_cell_length_a                         12.028000
_cell_length_b                         9.080400
_cell_length_c                         8.082900
_cell_angle_alpha                      90.000000
_cell_angle_beta                       90.000000
_cell_angle_gamma                      90.000000
_cell_volume                           882.806711
_space_group_name_H-M_alt              'P 1'
_space_group_IT_number                 1

loop_
_space_group_symop_operation_xyz
   'x, y, z'

loop_
   _atom_site_label
   _atom_site_occupancy
   _atom_site_fract_x
   _atom_site_fract_y
   _atom_site_fract_z
   _atom_site_adp_type
   _atom_site_U_iso_or_equiv
   _atom_site_type_symbol
   Sn1        1.0     0.242003     0.271246     0.018573    Uiso  ? Sn
   Sn2        1.0     0.757648     0.727869     0.514310    Uiso  ? Sn
   Sn3        1.0     0.742235     0.228845     0.013090    Uiso  ? Sn
   Sn4        1.0     0.257483     0.770742     0.516821    Uiso  ? Sn
   Br1        1.0     0.472561     0.281050     0.044789    Uiso  ? Br
   Br2        1.0     0.526873     0.726103     0.509207    Uiso  ? Br
   Br3        1.0     0.973528     0.226539     0.997264    Uiso  ? Br
   Br4        1.0     0.027425     0.778716     0.540933    Uiso  ? Br
   Br5        1.0     0.231749     0.066962     0.271013    Uiso  ? Br
   Br6        1.0     0.754419     0.935781     0.762466    Uiso  ? Br
   Br7        1.0     0.746459     0.435816     0.261911    Uiso  ? Br
   Br8        1.0     0.264029     0.556538     0.759100    Uiso  ? Br
   Br9        1.0     0.253375     0.070320     0.765029    Uiso  ? Br
   Br10       1.0     0.769080     0.921406     0.254279    Uiso  ? Br
   Br11       1.0     0.729931     0.423001     0.754457    Uiso  ? Br
   Br12       1.0     0.250947     0.580591     0.253292    Uiso  ? Br
   P1         1.0     0.529270     0.688130     0.013163    Uiso  ? P
   P2         1.0     0.464019     0.307567     0.530191    Uiso  ? P
   P3         1.0     0.035199     0.810589     0.022834    Uiso  ? P
   P4         1.0     0.970755     0.185604     0.511528    Uiso  ? P
   H1         1.0     0.635261     0.684001     0.939454    Uiso  ? H
   H2         1.0     0.520114     0.431191     0.465685    Uiso  ? H
   H3         1.0     0.974713     0.926965     0.950662    Uiso  ? H
   H4         1.0     0.866970     0.179583     0.591954    Uiso  ? H
   H5         1.0     0.539617     0.628652     0.173291    Uiso  ? H
   H6         1.0     0.357009     0.304809     0.459923    Uiso  ? H
   H7         1.0     0.141865     0.810664     0.951290    Uiso  ? H
   H8         1.0     0.042911     0.088488     0.594720    Uiso  ? H
   H9         1.0     0.458479     0.595949     0.920412    Uiso  ? H
   H10        1.0     0.451912     0.330127     0.701755    Uiso  ? H
   H11        1.0     0.047835     0.843113     0.192242    Uiso  ? H
   H12        1.0     0.955131     0.131532     0.349862    Uiso  ? H
   H13        1.0     0.535329     0.939292     0.088765    Uiso  ? H
   H14        1.0     0.549485     0.129544     0.356465    Uiso  ? H
   H15        1.0     0.954882     0.618468     0.862094    Uiso  ? H
   H16        1.0     0.039158     0.403971     0.636033    Uiso  ? H
   H17        1.0     0.395703     0.870221     0.082726    Uiso  ? H
   H18        1.0     0.486509     0.046940     0.534853    Uiso  ? H
   H19        1.0     0.019553     0.549649     0.046781    Uiso  ? H
   H20        1.0     0.102881     0.369387     0.439709    Uiso  ? H
   H21        1.0     0.467165     0.912199     0.894058    Uiso  ? H
   H22        1.0     0.616563     0.141805     0.554712    Uiso  ? H
   H23        1.0     0.886911     0.639260     0.058791    Uiso  ? H
   H24        1.0     0.963793     0.439990     0.448451    Uiso  ? H
   C1         1.0     0.476760     0.869665     0.020227    Uiso  ? C
   C2         1.0     0.536361     0.139895     0.490144    Uiso  ? C
   C3         1.0     0.967357     0.637122     0.994795    Uiso  ? C
   C4         1.0     0.024301     0.367224     0.508682    Uiso  ? C
