FINDSYM, Version 7.1.4, Jan 2022
Written by Harold T. Stokes, Branton J. Campbell, and Dorian M. Hatch
Brigham Young University

CIF file /tmp/pwd_public/findsym_53350.iso

Lattice parameters, a,b,c,alpha,beta,gamma:
   6.05150  11.90980  11.98180  90.00000  91.71600  90.00000
Vectors defining the unit cell (dimensionless coordinates):
   1.00000   0.00000   0.00000
   0.00000   1.00000   0.00000
   0.00000   0.00000   1.00000
Number of atoms in unit cell:
   48
Type of each atom:
4*Sn 12*Br 4*P 24*H 4*C 
         Position                     Occ      
    1 Sn  0.58360  0.99658  0.39749    1.000  
    2 Sn  0.58360  0.00342  0.89749    1.000  
    3 Sn  0.57870  0.50318  0.85401    1.000  
    4 Sn  0.57870  0.49682  0.35401    1.000  
    5 Br  0.56950  0.22250  0.42890    1.000  
    6 Br  0.56950  0.77750  0.92890    1.000  
    7 Br  0.58690  0.27977  0.82120    1.000  
    8 Br  0.58690  0.72023  0.32120    1.000  
    9 Br  0.57020  0.94920  0.61720    1.000  
   10 Br  0.57020  0.05080  0.11720    1.000  
   11 Br  0.58700  0.55070  0.63260    1.000  
   12 Br  0.58700  0.44930  0.13260    1.000  
   13 Br  0.12670  0.50080  0.84340    1.000  
   14 Br  0.12670  0.49920  0.34340    1.000  
   15 Br  0.03870  0.99790  0.40810    1.000  
   16 Br  0.03870  0.00210  0.90810    1.000  
   17 P   0.07341  0.77914  0.69002    1.000  
   18 P   0.07341  0.22086  0.19002    1.000  
   19 P   0.07773  0.20142  0.67253    1.000  
   20 P   0.07773  0.79858  0.17253    1.000  
   21 H   0.26203  0.75824  0.75913    1.000  
   22 H   0.26203  0.24175  0.25913    1.000  
   23 H   0.88584  0.74968  0.75059    1.000  
   24 H   0.88584  0.25032  0.25059    1.000  
   25 H   0.06262  0.89555  0.67287    1.000  
   26 H   0.06262  0.10445  0.17287    1.000  
   27 H   0.26142  0.13223  0.65191    1.000  
   28 H   0.26142  0.86777  0.15191    1.000  
   29 H   0.88738  0.13603  0.64976    1.000  
   30 H   0.88738  0.86397  0.14976    1.000  
   31 H   0.08292  0.22690  0.78678    1.000  
   32 H   0.08292  0.77310  0.28678    1.000  
   33 H   0.23050  0.73383  0.51628    1.000  
   34 H   0.23050  0.26617  0.01629    1.000  
   35 H   0.93198  0.72710  0.50999    1.000  
   36 H   0.93198  0.27290  0.00999    1.000  
   37 H   0.09036  0.61645  0.57555    1.000  
   38 H   0.09036  0.38355  0.07555    1.000  
   39 H   0.93224  0.37534  0.60647    1.000  
   40 H   0.93224  0.62466  0.10647    1.000  
   41 H   0.07724  0.30080  0.50039    1.000  
   42 H   0.07724  0.69920  0.00039    1.000  
   43 H   0.22991  0.37328  0.60943    1.000  
   44 H   0.22991  0.62672  0.10943    1.000  
   45 C   0.08225  0.70692  0.55960    1.000  
   46 C   0.08225  0.29308  0.05960    1.000  
   47 C   0.07941  0.32517  0.58858    1.000  
   48 C   0.07941  0.67483  0.08858    1.000  

Tolerance of lattice:   0.00001
Tolerance of atomic position:   0.00100
Tolerance of occupation:   0.00100
------------------------------------------
Space Group:   7  Cs-2      Pc        
Origin at   -0.00000   0.00000   0.00000
Vectors a,b,c:
   1.00000   0.00000   0.00000
  -0.00000   1.00000   0.00000
   0.00000   0.00000   1.00000
Values of a,b,c,alpha,beta,gamma:
   6.05150  11.90980  11.98180  90.00000  91.71600  90.00000
Ratio of new/old primtive cell volumes = 1
Atomic positions and occupancies in terms of a,b,c:
Wyckoff position a (Sn1), x = -0.41640, y = -0.00342, z =  0.39749
    1   0.58360   0.99658   0.39749     1.00000
    2   0.58360   0.00342   0.89749     1.00000
    RMS position shift  = 0.00000, MAX position shift  = 0.00000
Wyckoff position a (Sn2), x = -0.42130, y = -0.49682, z = -0.14599
    3   0.57870   0.50318   0.85401     1.00000
    4   0.57870   0.49682   0.35401     1.00000
    RMS position shift  = 0.00000, MAX position shift  = 0.00000
Wyckoff position a (Br1), x = -0.43050, y =  0.22250, z =  0.42890
    5   0.56950   0.22250   0.42890     1.00000
    6   0.56950   0.77750   0.92890     1.00000
    RMS position shift  = 0.00000, MAX position shift  = 0.00000
Wyckoff position a (Br2), x = -0.41310, y =  0.27977, z = -0.17880
    7   0.58690   0.27977   0.82120     1.00000
    8   0.58690   0.72023   0.32120     1.00000
    RMS position shift  = 0.00000, MAX position shift  = 0.00000
Wyckoff position a (Br3), x = -0.42980, y = -0.05080, z = -0.38280
    9   0.57020   0.94920   0.61720     1.00000
   10   0.57020   0.05080   0.11720     1.00000
    RMS position shift  = 0.00000, MAX position shift  = 0.00000
Wyckoff position a (Br4), x = -0.41300, y = -0.44930, z = -0.36740
   11   0.58700   0.55070   0.63260     1.00000
   12   0.58700   0.44930   0.13260     1.00000
    RMS position shift  = 0.00000, MAX position shift  = 0.00000
Wyckoff position a (Br5), x =  0.12670, y = -0.49920, z = -0.15660
   13   0.12670   0.50080   0.84340     1.00000
   14   0.12670   0.49920   0.34340     1.00000
    RMS position shift  = 0.00000, MAX position shift  = 0.00000
Wyckoff position a (Br6), x =  0.03870, y = -0.00210, z =  0.40810
   15   0.03870   0.99790   0.40810     1.00000
   16   0.03870   0.00210   0.90810     1.00000
    RMS position shift  = 0.00000, MAX position shift  = 0.00000
Wyckoff position a (P1), x =  0.07341, y = -0.22086, z = -0.30998
   17   0.07341   0.77914   0.69002     1.00000
   18   0.07341   0.22086   0.19002     1.00000
    RMS position shift  = 0.00000, MAX position shift  = 0.00000
Wyckoff position a (P2), x =  0.07773, y =  0.20142, z = -0.32747
   19   0.07773   0.20142   0.67253     1.00000
   20   0.07773   0.79858   0.17253     1.00000
    RMS position shift  = 0.00000, MAX position shift  = 0.00000
Wyckoff position a (H1), x =  0.26203, y = -0.24176, z = -0.24087
   21   0.26203   0.75824   0.75913     1.00000
   22   0.26203   0.24175   0.25913     1.00000
    RMS position shift  = 0.00000, MAX position shift  = 0.00000
Wyckoff position a (H2), x = -0.11416, y = -0.25032, z = -0.24941
   23   0.88584   0.74968   0.75059     1.00000
   24   0.88584   0.25032   0.25059     1.00000
    RMS position shift  = 0.00000, MAX position shift  = 0.00000
Wyckoff position a (H3), x =  0.06262, y = -0.10445, z = -0.32713
   25   0.06262   0.89555   0.67287     1.00000
   26   0.06262   0.10445   0.17287     1.00000
    RMS position shift  = 0.00000, MAX position shift  = 0.00000
Wyckoff position a (H4), x =  0.26142, y =  0.13223, z = -0.34809
   27   0.26142   0.13223   0.65191     1.00000
   28   0.26142   0.86777   0.15191     1.00000
    RMS position shift  = 0.00000, MAX position shift  = 0.00000
Wyckoff position a (H5), x = -0.11262, y =  0.13603, z = -0.35024
   29   0.88738   0.13603   0.64976     1.00000
   30   0.88738   0.86397   0.14976     1.00000
    RMS position shift  = 0.00000, MAX position shift  = 0.00000
Wyckoff position a (H6), x =  0.08292, y =  0.22690, z = -0.21322
   31   0.08292   0.22690   0.78678     1.00000
   32   0.08292   0.77310   0.28678     1.00000
    RMS position shift  = 0.00000, MAX position shift  = 0.00000
Wyckoff position a (H7), x =  0.23050, y = -0.26617, z = -0.48372
   33   0.23050   0.73383   0.51628     1.00000
   34   0.23050   0.26617   0.01628     1.00000
    RMS position shift  = 0.00000, MAX position shift  = 0.00000
Wyckoff position a (H8), x = -0.06802, y = -0.27290, z = -0.49001
   35   0.93198   0.72710   0.50999     1.00000
   36   0.93198   0.27290   0.00999     1.00000
    RMS position shift  = 0.00000, MAX position shift  = 0.00000
Wyckoff position a (H9), x =  0.09036, y = -0.38355, z = -0.42445
   37   0.09036   0.61645   0.57555     1.00000
   38   0.09036   0.38355   0.07555     1.00000
    RMS position shift  = 0.00000, MAX position shift  = 0.00000
Wyckoff position a (H10), x = -0.06776, y =  0.37534, z = -0.39353
   39   0.93224   0.37534   0.60647     1.00000
   40   0.93224   0.62466   0.10647     1.00000
    RMS position shift  = 0.00000, MAX position shift  = 0.00000
Wyckoff position a (H11), x =  0.07724, y =  0.30080, z = -0.49961
   41   0.07724   0.30080   0.50039     1.00000
   42   0.07724   0.69920   0.00039     1.00000
    RMS position shift  = 0.00001, MAX position shift  = 0.00001
Wyckoff position a (H12), x =  0.22991, y =  0.37328, z = -0.39057
   43   0.22991   0.37328   0.60943     1.00000
   44   0.22991   0.62672   0.10943     1.00000
    RMS position shift  = 0.00000, MAX position shift  = 0.00000
Wyckoff position a (C1), x =  0.08225, y = -0.29308, z = -0.44040
   45   0.08225   0.70692   0.55960     1.00000
   46   0.08225   0.29308   0.05960     1.00000
    RMS position shift  = 0.00000, MAX position shift  = 0.00000
Wyckoff position a (C2), x =  0.07941, y =  0.32517, z = -0.41142
   47   0.07941   0.32517   0.58858     1.00000
   48   0.07941   0.67483   0.08858     1.00000
    RMS position shift  = 0.00000, MAX position shift  = 0.00000
------------------------------------------
# CIF file created by FINDSYM, version 7.1.3

data_findsym-output
_audit_creation_method FINDSYM

_cell_length_a    6.0515000000
_cell_length_b    11.9098000000
_cell_length_c    11.9818000000
_cell_angle_alpha 90.0000000000
_cell_angle_beta  91.7160030000
_cell_angle_gamma 90.0000000000
_cell_volume      863.1668695479

_symmetry_space_group_name_H-M "P 1 c 1"
_symmetry_Int_Tables_number 7
_space_group.reference_setting '007:P -2yc'
_space_group.transform_Pp_abc a,b,c;0,0,0

loop_
_space_group_symop_id
_space_group_symop_operation_xyz
1 x,y,z
2 x,-y,z+1/2

loop_
_atom_site_label
_atom_site_type_symbol
_atom_site_symmetry_multiplicity
_atom_site_Wyckoff_label
_atom_site_fract_x
_atom_site_fract_y
_atom_site_fract_z
_atom_site_occupancy
_atom_site_fract_symmform
Sn1 Sn   2 a 0.58360  -0.00342 0.39749 1.00000 Dx,Dy,Dz 
Sn2 Sn   2 a 0.57870  0.50318  0.85401 1.00000 Dx,Dy,Dz 
Br1 Br   2 a 0.56950  0.22250  0.42890 1.00000 Dx,Dy,Dz 
Br2 Br   2 a 0.58690  0.27977  0.82120 1.00000 Dx,Dy,Dz 
Br3 Br   2 a 0.57020  -0.05080 0.61720 1.00000 Dx,Dy,Dz 
Br4 Br   2 a 0.58700  0.55070  0.63260 1.00000 Dx,Dy,Dz 
Br5 Br   2 a 0.12670  0.50080  0.84340 1.00000 Dx,Dy,Dz 
Br6 Br   2 a 0.03870  -0.00210 0.40810 1.00000 Dx,Dy,Dz 
P1  P    2 a 0.07341  0.77914  0.69002 1.00000 Dx,Dy,Dz 
P2  P    2 a 0.07773  0.20142  0.67253 1.00000 Dx,Dy,Dz 
H1  H    2 a 0.26203  0.75824  0.75913 1.00000 Dx,Dy,Dz 
H2  H    2 a 0.88584  0.74968  0.75059 1.00000 Dx,Dy,Dz 
H3  H    2 a 0.06262  0.89555  0.67287 1.00000 Dx,Dy,Dz 
H4  H    2 a 0.26142  0.13223  0.65191 1.00000 Dx,Dy,Dz 
H5  H    2 a 0.88738  0.13603  0.64976 1.00000 Dx,Dy,Dz 
H6  H    2 a 0.08292  0.22690  0.78678 1.00000 Dx,Dy,Dz 
H7  H    2 a 0.23050  0.73383  0.51628 1.00000 Dx,Dy,Dz 
H8  H    2 a -0.06802 0.72710  0.50999 1.00000 Dx,Dy,Dz 
H9  H    2 a 0.09036  0.61645  0.57555 1.00000 Dx,Dy,Dz 
H10 H    2 a -0.06776 0.37534  0.60647 1.00000 Dx,Dy,Dz 
H11 H    2 a 0.07724  0.30080  0.50039 1.00000 Dx,Dy,Dz 
H12 H    2 a 0.22991  0.37328  0.60943 1.00000 Dx,Dy,Dz 
C1  C    2 a 0.08225  0.70692  0.55960 1.00000 Dx,Dy,Dz 
C2  C    2 a 0.07941  0.32517  0.58858 1.00000 Dx,Dy,Dz 
