# CIF file created by FINDSYM, version 7.1.3

data_findsym-output
_audit_creation_method FINDSYM

_cell_length_a    5.9884040000
_cell_length_b    11.7281380000
_cell_length_c    11.7965180000
_cell_angle_alpha 90.0000000000
_cell_angle_beta  91.0372620000
_cell_angle_gamma 90.0000000000
_cell_volume      828.3670619853

_symmetry_space_group_name_H-M "P 1 c 1"
_symmetry_Int_Tables_number 7
_space_group.reference_setting '007:P -2yc'
_space_group.transform_Pp_abc a,b,c;0,0,0

loop_
_space_group_symop_id
_space_group_symop_operation_xyz
1 x,y,z
2 x,-y,z+1/2

loop_
_atom_site_label
_atom_site_type_symbol
_atom_site_symmetry_multiplicity
_atom_site_Wyckoff_label
_atom_site_fract_x
_atom_site_fract_y
_atom_site_fract_z
_atom_site_occupancy
_atom_site_fract_symmform
Sn1 Sn   2 a 0.58647  -0.00165 0.39362 1.00000 Dx,Dy,Dz 
Sn2 Sn   2 a 0.57736  0.50266  0.85000 1.00000 Dx,Dy,Dz 
Br1 Br   2 a 0.58091  0.23215  0.42507 1.00000 Dx,Dy,Dz 
Br2 Br   2 a 0.58659  0.26457  0.81948 1.00000 Dx,Dy,Dz 
Br3 Br   2 a 0.57919  -0.04835 0.62855 1.00000 Dx,Dy,Dz 
Br4 Br   2 a 0.59407  0.55089  0.62127 1.00000 Dx,Dy,Dz 
Br5 Br   2 a 0.11167  0.50764  0.83103 1.00000 Dx,Dy,Dz 
Br6 Br   2 a 0.06578  0.00501  0.40204 1.00000 Dx,Dy,Dz 
P1  P    2 a 0.08295  0.78072  0.68161 1.00000 Dx,Dy,Dz 
P2  P    2 a 0.08210  0.19859  0.66657 1.00000 Dx,Dy,Dz 
H1  H    2 a 0.27301  0.75878  0.75052 1.00000 Dx,Dy,Dz 
H2  H    2 a 0.89265  0.75245  0.74427 1.00000 Dx,Dy,Dz 
H3  H    2 a 0.07532  0.89856  0.66232 1.00000 Dx,Dy,Dz 
H4  H    2 a 0.26803  0.12831  0.64555 1.00000 Dx,Dy,Dz 
H5  H    2 a 0.88949  0.13268  0.64382 1.00000 Dx,Dy,Dz 
H6  H    2 a 0.08524  0.22455  0.78247 1.00000 Dx,Dy,Dz 
H7  H    2 a 0.24071  0.73276  0.50443 1.00000 Dx,Dy,Dz 
H8  H    2 a -0.06101 0.72824  0.49996 1.00000 Dx,Dy,Dz 
H9  H    2 a 0.09528  0.61487  0.56584 1.00000 Dx,Dy,Dz 
H10 H    2 a -0.06180 0.37594  0.60074 1.00000 Dx,Dy,Dz 
H11 H    2 a 0.08324  0.29969  0.49227 1.00000 Dx,Dy,Dz 
H12 H    2 a 0.23879  0.37251  0.60199 1.00000 Dx,Dy,Dz 
C1  C    2 a 0.09019  0.70671  0.54948 1.00000 Dx,Dy,Dz 
C2  C    2 a 0.08596  0.32436  0.58178 1.00000 Dx,Dy,Dz 
