
#======================================================================
# CRYSTAL DATA
#----------------------------------------------------------------------
data_VESTA_phase_1

_chemical_name_common                  'unknown system                        '
_cell_length_a                         6.051500
_cell_length_b                         11.909800
_cell_length_c                         11.981800
_cell_angle_alpha                      90.000000
_cell_angle_beta                       91.716003
_cell_angle_gamma                      90.000000
_cell_volume                           863.166822
_space_group_name_H-M_alt              'P 1'
_space_group_IT_number                 1

loop_
_space_group_symop_operation_xyz
   'x, y, z'

loop_
   _atom_site_label
   _atom_site_occupancy
   _atom_site_fract_x
   _atom_site_fract_y
   _atom_site_fract_z
   _atom_site_adp_type
   _atom_site_U_iso_or_equiv
   _atom_site_type_symbol
   Sn1        1.0     0.588462     0.997414     0.395003    Uiso  ? Sn
   Sn2        1.0     0.588220     0.002703     0.895353    Uiso  ? Sn
   Sn3        1.0     0.577299     0.500860     0.848237    Uiso  ? Sn
   Sn4        1.0     0.577565     0.499226     0.347795    Uiso  ? Sn
   Br1        1.0     0.578278     0.225533     0.423796    Uiso  ? Br
   Br2        1.0     0.578762     0.774477     0.924424    Uiso  ? Br
   Br3        1.0     0.588309     0.269457     0.814399    Uiso  ? Br
   Br4        1.0     0.587931     0.730376     0.313622    Uiso  ? Br
   Br5        1.0     0.579497     0.953373     0.625410    Uiso  ? Br
   Br6        1.0     0.578947     0.047285     0.125527    Uiso  ? Br
   Br7        1.0     0.594915     0.553558     0.626543    Uiso  ? Br
   Br8        1.0     0.595728     0.445655     0.126426    Uiso  ? Br
   Br9        1.0     0.119653     0.505370     0.831936    Uiso  ? Br
   Br10       1.0     0.119647     0.493558     0.331837    Uiso  ? Br
   Br11       1.0     0.057327     0.003356     0.401504    Uiso  ? Br
   Br12       1.0     0.056607     0.997707     0.901685    Uiso  ? Br
   P1         1.0     0.082014     0.779404     0.682314    Uiso  ? P
   P2         1.0     0.082671     0.220287     0.182262    Uiso  ? P
   P3         1.0     0.081312     0.198580     0.663049    Uiso  ? P
   P4         1.0     0.081587     0.801633     0.162383    Uiso  ? P
   H1         1.0     0.266315     0.755734     0.749263    Uiso  ? H
   H2         1.0     0.271377     0.242381     0.250783    Uiso  ? H
   H3         1.0     0.893063     0.749121     0.741317    Uiso  ? H
   H4         1.0     0.894565     0.250476     0.241975    Uiso  ? H
   H5         1.0     0.074452     0.896206     0.668028    Uiso  ? H
   H6         1.0     0.072710     0.103778     0.166057    Uiso  ? H
   H7         1.0     0.264699     0.129438     0.641744    Uiso  ? H
   H8         1.0     0.263908     0.871119     0.139993    Uiso  ? H
   H9         1.0     0.889747     0.134418     0.639186    Uiso  ? H
   H10        1.0     0.888907     0.864833     0.138273    Uiso  ? H
   H11        1.0     0.086102     0.221995     0.777728    Uiso  ? H
   H12        1.0     0.087690     0.779389     0.277298    Uiso  ? H
   H13        1.0    -0.058812     0.734156     0.498756    Uiso  ? H
   H14        1.0     0.239739     0.263615     0.006859    Uiso  ? H
   H15        1.0     0.240201     0.737167     0.506394    Uiso  ? H
   H16        1.0     0.941021     0.269389     0.000435    Uiso  ? H
   H17        1.0     0.093149     0.619424     0.561387    Uiso  ? H
   H18        1.0     0.097886     0.381742     0.064213    Uiso  ? H
   H19        1.0     0.939132     0.375090     0.600715    Uiso  ? H
   H20        1.0     0.941094     0.623563     0.101950    Uiso  ? H
   H21        1.0     0.081676     0.302029     0.492808    Uiso  ? H
   H22        1.0     0.081595     0.696033     0.992869    Uiso  ? H
   H23        1.0     0.236739     0.371431     0.603046    Uiso  ? H
   H24        1.0     0.238845     0.628216     0.103450    Uiso  ? H
   C1         1.0     0.089858     0.710359     0.547911    Uiso  ? C
   C2         1.0     0.091103     0.291048     0.049528    Uiso  ? C
   C3         1.0     0.085086     0.324645     0.581433    Uiso  ? C
   C4         1.0     0.086274     0.674122     0.081664    Uiso  ? C
