FINDSYM, Version 7.1.4, Jan 2022
Written by Harold T. Stokes, Branton J. Campbell, and Dorian M. Hatch
Brigham Young University

CIF file /tmp/pwd_public/findsym_27695.iso

Lattice parameters, a,b,c,alpha,beta,gamma:
  11.84510   9.06828   7.90249  90.00000  90.00000  90.00000
Vectors defining the unit cell (dimensionless coordinates):
   1.00000   0.00000   0.00000
   0.00000   1.00000   0.00000
   0.00000   0.00000   1.00000
Number of atoms in unit cell:
   48
Type of each atom:
4*Sn 12*Br 4*P 24*H 4*C 
         Position                     Occ      
    1 Sn  0.24233  0.26988  0.02009    1.000  
    2 Sn  0.75767  0.73012  0.52009    1.000  
    3 Sn  0.74233  0.23012  0.02009    1.000  
    4 Sn  0.25767  0.76988  0.52009    1.000  
    5 Br  0.48056  0.28064  0.03540    1.000  
    6 Br  0.51944  0.71936  0.53540    1.000  
    7 Br  0.98056  0.21936  0.03540    1.000  
    8 Br  0.01944  0.78064  0.53540    1.000  
    9 Br  0.24688  0.04610  0.26185    1.000  
   10 Br  0.75311  0.95390  0.76185    1.000  
   11 Br  0.74689  0.45390  0.26185    1.000  
   12 Br  0.25311  0.54610  0.76185    1.000  
   13 Br  0.24429  0.08455  0.74889    1.000  
   14 Br  0.75571  0.91545  0.24889    1.000  
   15 Br  0.74429  0.41545  0.74889    1.000  
   16 Br  0.25571  0.58455  0.24889    1.000  
   17 P   0.52427  0.68622  0.01410    1.000  
   18 P   0.47573  0.31378  0.51410    1.000  
   19 P   0.02427  0.81378  0.01410    1.000  
   20 P   0.97573  0.18622  0.51410    1.000  
   21 H   0.44702  0.59142  0.93319    1.000  
   22 H   0.55298  0.40858  0.43319    1.000  
   23 H   0.94702  0.90858  0.93319    1.000  
   24 H   0.05298  0.09142  0.43319    1.000  
   25 H   0.63103  0.66263  0.94086    1.000  
   26 H   0.36897  0.33737  0.44086    1.000  
   27 H   0.13103  0.83737  0.94086    1.000  
   28 H   0.86897  0.16263  0.44086    1.000  
   29 H   0.53189  0.64513  0.18555    1.000  
   30 H   0.46811  0.35487  0.68555    1.000  
   31 H   0.03189  0.85487  0.18555    1.000  
   32 H   0.96811  0.14513  0.68555    1.000  
   33 H   0.39749  0.88674  0.05709    1.000  
   34 H   0.60251  0.11326  0.55710    1.000  
   35 H   0.89749  0.61326  0.05709    1.000  
   36 H   0.10251  0.38674  0.55710    1.000  
   37 H   0.47336  0.90188  0.86043    1.000  
   38 H   0.52664  0.09812  0.36043    1.000  
   39 H   0.97336  0.59812  0.86043    1.000  
   40 H   0.02664  0.40188  0.36043    1.000  
   41 H   0.54240  0.94479  0.05631    1.000  
   42 H   0.45760  0.05521  0.55631    1.000  
   43 H   0.04240  0.55521  0.05631    1.000  
   44 H   0.95760  0.44479  0.55631    1.000  
   45 C   0.47981  0.87373  0.99491    1.000  
   46 C   0.52019  0.12627  0.49491    1.000  
   47 C   0.97981  0.62627  0.99491    1.000  
   48 C   0.02019  0.37373  0.49491    1.000  

Tolerance of lattice:   0.00001
Tolerance of atomic position:   0.00100
Tolerance of occupation:   0.00100
------------------------------------------
Space Group:  33  C2v-9     Pna2_1    
Origin at    0.50000   0.50000   0.00000
Vectors a,b,c:
   1.00000   0.00000   0.00000
   0.00000   1.00000   0.00000
   0.00000   0.00000   1.00000
Values of a,b,c,alpha,beta,gamma:
  11.84510   9.06828   7.90249  90.00000  90.00000  90.00000
Ratio of new/old primtive cell volumes = 1
Atomic positions and occupancies in terms of a,b,c:
Wyckoff position a (Sn1), x = -0.25767, y = -0.23012, z =  0.02009
    1   0.74233   0.76988   0.02009     1.00000
    2   0.25767   0.23012   0.52009     1.00000
    4   0.75767   0.26988   0.52009     1.00000
    3   0.24233   0.73012   0.02009     1.00000
    RMS position shift  = 0.00000, MAX position shift  = 0.00000
Wyckoff position a (Br1), x = -0.01944, y = -0.21936, z =  0.03540
    5   0.98056   0.78064   0.03540     1.00000
    6   0.01944   0.21936   0.53540     1.00000
    8   0.51944   0.28064   0.53540     1.00000
    7   0.48056   0.71936   0.03540     1.00000
    RMS position shift  = 0.00000, MAX position shift  = 0.00000
Wyckoff position a (Br2), x = -0.25311, y = -0.45390, z =  0.26185
    9   0.74689   0.54610   0.26185     1.00000
   10   0.25311   0.45390   0.76185     1.00000
   12   0.75311   0.04610   0.76185     1.00000
   11   0.24688   0.95390   0.26185     1.00000
    RMS position shift  = 0.00000, MAX position shift  = 0.00000
Wyckoff position a (Br3), x = -0.25571, y = -0.41545, z = -0.25111
   13   0.74429   0.58455   0.74889     1.00000
   14   0.25571   0.41545   0.24889     1.00000
   16   0.75571   0.08455   0.24889     1.00000
   15   0.24429   0.91545   0.74889     1.00000
    RMS position shift  = 0.00000, MAX position shift  = 0.00000
Wyckoff position a (P1), x =  0.02427, y =  0.18622, z =  0.01410
   17   0.02427   0.18622   0.01410     1.00000
   18   0.97573   0.81378   0.51410     1.00000
   20   0.47573   0.68622   0.51410     1.00000
   19   0.52427   0.31378   0.01410     1.00000
    RMS position shift  = 0.00000, MAX position shift  = 0.00000
Wyckoff position a (H1), x = -0.05298, y =  0.09142, z = -0.06681
   21   0.94702   0.09142   0.93319     1.00000
   22   0.05298   0.90858   0.43319     1.00000
   24   0.55298   0.59142   0.43319     1.00000
   23   0.44702   0.40858   0.93319     1.00000
    RMS position shift  = 0.00000, MAX position shift  = 0.00000
Wyckoff position a (H2), x =  0.13103, y =  0.16263, z = -0.05914
   25   0.13103   0.16263   0.94086     1.00000
   26   0.86897   0.83737   0.44086     1.00000
   28   0.36897   0.66263   0.44086     1.00000
   27   0.63103   0.33737   0.94086     1.00000
    RMS position shift  = 0.00000, MAX position shift  = 0.00000
Wyckoff position a (H3), x =  0.03189, y =  0.14513, z =  0.18555
   29   0.03189   0.14513   0.18555     1.00000
   30   0.96811   0.85487   0.68555     1.00000
   32   0.46811   0.64513   0.68555     1.00000
   31   0.53189   0.35487   0.18555     1.00000
    RMS position shift  = 0.00000, MAX position shift  = 0.00000
Wyckoff position a (H4), x = -0.10251, y =  0.38674, z =  0.05709
   33   0.89749   0.38674   0.05709     1.00000
   34   0.10251   0.61326   0.55710     1.00000
   36   0.60251   0.88674   0.55710     1.00000
   35   0.39749   0.11326   0.05709     1.00000
    RMS position shift  = 0.00000, MAX position shift  = 0.00000
Wyckoff position a (H5), x = -0.02664, y =  0.40188, z = -0.13957
   37   0.97336   0.40188   0.86043     1.00000
   38   0.02664   0.59812   0.36043     1.00000
   40   0.52664   0.90188   0.36043     1.00000
   39   0.47336   0.09812   0.86043     1.00000
    RMS position shift  = 0.00000, MAX position shift  = 0.00000
Wyckoff position a (H6), x =  0.04240, y =  0.44479, z =  0.05631
   41   0.04240   0.44479   0.05631     1.00000
   42   0.95760   0.55521   0.55631     1.00000
   44   0.45760   0.94479   0.55631     1.00000
   43   0.54240   0.05521   0.05631     1.00000
    RMS position shift  = 0.00000, MAX position shift  = 0.00000
Wyckoff position a (C1), x = -0.02019, y =  0.37373, z = -0.00509
   45   0.97981   0.37373   0.99491     1.00000
   46   0.02019   0.62627   0.49491     1.00000
   48   0.52019   0.87373   0.49491     1.00000
   47   0.47981   0.12627   0.99491     1.00000
    RMS position shift  = 0.00000, MAX position shift  = 0.00000
------------------------------------------
# CIF file created by FINDSYM, version 7.1.3

data_findsym-output
_audit_creation_method FINDSYM

_cell_length_a    11.8450980000
_cell_length_b    9.0682850000
_cell_length_c    7.9024940000
_cell_angle_alpha 90.0000000000
_cell_angle_beta  90.0000000000
_cell_angle_gamma 90.0000000000
_cell_volume      848.8442160067

_symmetry_space_group_name_H-M "P n a 21"
_symmetry_Int_Tables_number 33
_space_group.reference_setting '033:P 2c -2n'
_space_group.transform_Pp_abc a,b,c;0,0,0

loop_
_space_group_symop_id
_space_group_symop_operation_xyz
1 x,y,z
2 -x,-y,z+1/2
3 -x+1/2,y+1/2,z+1/2
4 x+1/2,-y+1/2,z

loop_
_atom_site_label
_atom_site_type_symbol
_atom_site_symmetry_multiplicity
_atom_site_Wyckoff_label
_atom_site_fract_x
_atom_site_fract_y
_atom_site_fract_z
_atom_site_occupancy
_atom_site_fract_symmform
Sn1 Sn   4 a 0.74233  0.76988 0.02009  1.00000 Dx,Dy,Dz 
Br1 Br   4 a -0.01944 0.78064 0.03540  1.00000 Dx,Dy,Dz 
Br2 Br   4 a 0.74689  0.54610 0.26185  1.00000 Dx,Dy,Dz 
Br3 Br   4 a 0.74429  0.58455 0.74889  1.00000 Dx,Dy,Dz 
P1  P    4 a 0.02427  0.18622 0.01410  1.00000 Dx,Dy,Dz 
H1  H    4 a -0.05298 0.09142 -0.06681 1.00000 Dx,Dy,Dz 
H2  H    4 a 0.13103  0.16263 -0.05914 1.00000 Dx,Dy,Dz 
H3  H    4 a 0.03189  0.14513 0.18555  1.00000 Dx,Dy,Dz 
H4  H    4 a 0.89749  0.38674 0.05709  1.00000 Dx,Dy,Dz 
H5  H    4 a -0.02664 0.40188 0.86043  1.00000 Dx,Dy,Dz 
H6  H    4 a 0.04240  0.44479 0.05631  1.00000 Dx,Dy,Dz 
C1  C    4 a -0.02019 0.37373 -0.00509 1.00000 Dx,Dy,Dz 

# end of cif
